/*--------------------------------*- C++ -*----------------------------------*\
| =========                 |                                                 |
| \\      /  F ield         | OpenFOAM: The Open Source CFD Toolbox           |
|  \\    /   O peration     | Version:  2.4.0                                 |
|   \\  /    A nd           | Web:      www.OpenFOAM.org                      |
|    \\/     M anipulation  |                                                 |
\*---------------------------------------------------------------------------*/
FoamFile
{
    version     2.0;
    format      ascii;
    class       polyBoundaryMesh;
    location    "1/polyMesh";
    object      boundary;
}
// * * * * * * * * * * * * * * * * * * * * * * * * * * * * * * * * * * * * * //

5
(
    hills
    {
        type            wall;
        inGroups        1(wall);
        nFaces          120;
        startFace       30950;
    }
    top
    {
        type            wall;
        inGroups        1(wall);
        nFaces          120;
        startFace       31070;
    }
    frontAndBackPlanes
    {
        type            empty;
        inGroups        1(empty);
        nFaces          31200;
        startFace       31190;
    }
    inlet
    {
        type            cyclic;
        inGroups        1(cyclic);
        nFaces          130;
        startFace       62390;
        matchTolerance  0.0001;
        transform       unknown;
        neighbourPatch  outlet;
    }
    outlet
    {
        type            cyclic;
        inGroups        1(cyclic);
        nFaces          130;
        startFace       62520;
        matchTolerance  0.0001;
        transform       unknown;
        neighbourPatch  inlet;
    }
)

// ************************************************************************* //
