/*--------------------------------*- C++ -*----------------------------------*\
| =========                 |                                                 |
| \\      /  F ield         | OpenFOAM: The Open Source CFD Toolbox           |
|  \\    /   O peration     | Version:  2.4.0                                 |
|   \\  /    A nd           | Web:      www.OpenFOAM.org                      |
|    \\/     M anipulation  |                                                 |
\*---------------------------------------------------------------------------*/
FoamFile
{
    version     2.0;
    format      ascii;
    class       polyBoundaryMesh;
    location    "constant/polyMesh";
    object      boundary;
}
// * * * * * * * * * * * * * * * * * * * * * * * * * * * * * * * * * * * * * //

11
(
    inlet
    {
        type            cyclic;
        inGroups        1(cyclic);
        nFaces          0;
        startFace       19323;
        matchTolerance  0.0001;
        transform       unknown;
        neighbourPatch  outlet;
    }
    outlet
    {
        type            cyclic;
        inGroups        1(cyclic);
        nFaces          0;
        startFace       19323;
        matchTolerance  0.0001;
        transform       unknown;
        neighbourPatch  inlet;
    }
    top
    {
        type            wall;
        inGroups        1(wall);
        nFaces          0;
        startFace       19323;
    }
    hills
    {
        type            wall;
        inGroups        1(wall);
        nFaces          0;
        startFace       19323;
    }
    front
    {
        type            empty;
        inGroups        1(empty);
        nFaces          9779;
        startFace       19323;
    }
    back
    {
        type            empty;
        inGroups        1(empty);
        nFaces          9779;
        startFace       29102;
    }
    procBoundary1to0
    {
        type            processor;
        inGroups        1(processor);
        nFaces          182;
        startFace       38881;
        matchTolerance  0.0001;
        transform       unknown;
        myProcNo        1;
        neighbProcNo    0;
    }
    procBoundary1to3
    {
        type            processor;
        inGroups        1(processor);
        nFaces          156;
        startFace       39063;
        matchTolerance  0.0001;
        transform       unknown;
        myProcNo        1;
        neighbProcNo    3;
    }
    procBoundary1to5
    {
        type            processor;
        inGroups        1(processor);
        nFaces          39;
        startFace       39219;
        matchTolerance  0.0001;
        transform       unknown;
        myProcNo        1;
        neighbProcNo    5;
    }
    procBoundary1to6
    {
        type            processor;
        inGroups        1(processor);
        nFaces          8;
        startFace       39258;
        matchTolerance  0.0001;
        transform       unknown;
        myProcNo        1;
        neighbProcNo    6;
    }
    procBoundary1to7
    {
        type            processor;
        inGroups        1(processor);
        nFaces          85;
        startFace       39266;
        matchTolerance  0.0001;
        transform       unknown;
        myProcNo        1;
        neighbProcNo    7;
    }
)

// ************************************************************************* //
