/*--------------------------------*- C++ -*----------------------------------*\
| =========                 |                                                 |
| \\      /  F ield         | OpenFOAM: The Open Source CFD Toolbox           |
|  \\    /   O peration     | Version:  2.4.0                                 |
|   \\  /    A nd           | Web:      www.OpenFOAM.org                      |
|    \\/     M anipulation  |                                                 |
\*---------------------------------------------------------------------------*/
FoamFile
{
    version     2.0;
    format      ascii;
    class       polyBoundaryMesh;
    location    "constant/polyMesh";
    object      boundary;
}
// * * * * * * * * * * * * * * * * * * * * * * * * * * * * * * * * * * * * * //

9
(
    inlet
    {
        type            cyclic;
        inGroups        1(cyclic);
        nFaces          0;
        startFace       39105;
        matchTolerance  0.0001;
        transform       unknown;
        neighbourPatch  outlet;
    }
    outlet
    {
        type            cyclic;
        inGroups        1(cyclic);
        nFaces          0;
        startFace       39105;
        matchTolerance  0.0001;
        transform       unknown;
        neighbourPatch  inlet;
    }
    top
    {
        type            wall;
        inGroups        1(wall);
        nFaces          0;
        startFace       39105;
    }
    hills
    {
        type            wall;
        inGroups        1(wall);
        nFaces          122;
        startFace       39105;
    }
    front
    {
        type            empty;
        inGroups        1(empty);
        nFaces          19698;
        startFace       39227;
    }
    back
    {
        type            empty;
        inGroups        1(empty);
        nFaces          19698;
        startFace       58925;
    }
    procBoundary0to1
    {
        type            processor;
        inGroups        1(processor);
        nFaces          264;
        startFace       78623;
        matchTolerance  0.0001;
        transform       unknown;
        myProcNo        0;
        neighbProcNo    1;
    }
    procBoundary0to2
    {
        type            processor;
        inGroups        1(processor);
        nFaces          110;
        startFace       78887;
        matchTolerance  0.0001;
        transform       unknown;
        myProcNo        0;
        neighbProcNo    2;
    }
    procBoundary0to3
    {
        type            processor;
        inGroups        1(processor);
        nFaces          86;
        startFace       78997;
        matchTolerance  0.0001;
        transform       unknown;
        myProcNo        0;
        neighbProcNo    3;
    }
)

// ************************************************************************* //
