/*--------------------------------*- C++ -*----------------------------------*\
| =========                 |                                                 |
| \\      /  F ield         | OpenFOAM: The Open Source CFD Toolbox           |
|  \\    /   O peration     | Version:  v1812                                 |
|   \\  /    A nd           | Web:      www.OpenFOAM.com                      |
|    \\/     M anipulation  |                                                 |
\*---------------------------------------------------------------------------*/
FoamFile
{
    version     2.0;
    format      ascii;
    class       dictionary;
    location    "system";
    object      controlDict;
}
// * * * * * * * * * * * * * * * * * * * * * * * * * * * * * * * * * * * * * //

//libs ("./lib/kOmegaSSTx.so");
libs ("kOmegaSSTx_OF8.so"); ///home/unimelb.edu.au/lcampoli/OpenFOAM/lcampoli-8/platforms/linux64GccDPInt32Opt/lib

application     simpleFoam;

startFrom       startTime;

startTime       0;

stopAt          endTime;

endTime         20000;

deltaT          1;

writeControl    timeStep;

writeInterval   20000;

purgeWrite      1;

writeFormat     ascii;

writePrecision  8;

writeCompression off;

timeFormat      general;

timePrecision   8;

runTimeModifiable false;


// ************************************************************************* //
