/*--------------------------------*- C++ -*----------------------------------*\
  =========                 |
  \\      /  F ield         | OpenFOAM: The Open Source CFD Toolbox
   \\    /   O peration     | Website:  https://openfoam.org
    \\  /    A nd           | Version:  7
     \\/     M anipulation  |
\*---------------------------------------------------------------------------*/
FoamFile
{
    version     2.0;
    format      ascii;
    class       polyBoundaryMesh;
    location    "constant/polyMesh";
    object      boundary;
}
// * * * * * * * * * * * * * * * * * * * * * * * * * * * * * * * * * * * * * //

8
(
    bottomWall
    {
        type            wall;
        inGroups        List<word> 1(wall);
        nFaces          49;
        startFace       9636;
    }
    defaultFaces
    {
        type            empty;
        inGroups        List<word> 1(empty);
        nFaces          9834;
        startFace       9685;
    }
    inlet
    {
        type            cyclic;
        inGroups        List<word> 1(cyclic);
        nFaces          0;
        startFace       19519;
        matchTolerance  0.0001;
        transform       unknown;
        neighbourPatch  outlet;
    }
    outlet
    {
        type            cyclic;
        inGroups        List<word> 1(cyclic);
        nFaces          0;
        startFace       19519;
        matchTolerance  0.0001;
        transform       unknown;
        neighbourPatch  inlet;
    }
    topWall
    {
        type            wall;
        inGroups        List<word> 1(wall);
        nFaces          15;
        startFace       19519;
    }
    procBoundary0to2
    {
        type            processor;
        inGroups        List<word> 1(processor);
        nFaces          175;
        startFace       19534;
        matchTolerance  0.0001;
        transform       unknown;
        myProcNo        0;
        neighbProcNo    2;
    }
    procBoundary0to3
    {
        type            processor;
        inGroups        List<word> 1(processor);
        nFaces          8;
        startFace       19709;
        matchTolerance  0.0001;
        transform       unknown;
        myProcNo        0;
        neighbProcNo    3;
    }
    procBoundary0to5throughinlet
    {
        type            processorCyclic;
        inGroups        List<word> 1(processorCyclic);
        nFaces          149;
        startFace       19717;
        matchTolerance  0.0001;
        transform       unknown;
        myProcNo        0;
        neighbProcNo    5;
        referPatch      inlet;
    }
)

// ************************************************************************* //
