/*--------------------------------*- C++ -*----------------------------------*\
| =========                 |                                                 |
| \\      /  F ield         | OpenFOAM: The Open Source CFD Toolbox           |
|  \\    /   O peration     | Version:  v1812                                 |
|   \\  /    A nd           | Web:      www.OpenFOAM.com                      |
|    \\/     M anipulation  |                                                 |
\*---------------------------------------------------------------------------*/
FoamFile
{
    version     2.0;
    format      ascii;
    class       dictionary;
    location    "system";
    object      fvSchemes;
}
// * * * * * * * * * * * * * * * * * * * * * * * * * * * * * * * * * * * * * //

ddtSchemes
{
    default         steadyState;
}

gradSchemes
{
    default         Gauss linear;
    grad(p)         Gauss linear;
}

divSchemes
{
    default         none;
    div(phi,U)                    bounded Gauss upwind;
    div(phi,T)      		  bounded Gauss linearUpwind grad(T); 
    div(phi,k)                    bounded Gauss limitedLinear 1; //bounded Gauss upwind;
    div(phi,omega)                bounded Gauss limitedLinear 1; //bounded Gauss upwind;
    div((nuEff*dev(T(grad(U)))))  Gauss linear; //second order bounded
    div((nuEff*dev(T(grad(U)))))  Gauss linear;
    div(dev(((2*k)*aijx)))        Gauss linear;
    div((nuEff*dev2(T(grad(U))))) Gauss linear;
    div(((2*k)*aijx))             Gauss linear;
}

laplacianSchemes
{
    default         Gauss linear corrected;
}

interpolationSchemes
{
    default         linear;
}

snGradSchemes
{
    default         corrected;
}

wallDist
{
    method          meshWave;
    nRequired       yes;
}

fluxRequired
{
    default         no;
    p               ;
}


// ************************************************************************* //
