/*--------------------------------*- C++ -*----------------------------------*\
| =========                 |                                                 |
| \\      /  F ield         | OpenFOAM: The Open Source CFD Toolbox           |
|  \\    /   O peration     | Version:  2.3.0                                 |
|   \\  /    A nd           | Web:      www.OpenFOAM.org                      |
|    \\/     M anipulation  |                                                 |
\*---------------------------------------------------------------------------*/
FoamFile
{
    version     2.0;
    format      ascii;
    class       dictionary;
    location    "constant";
    object      turbulenceProperties;
}
// * * * * * * * * * * * * * * * * * * * * * * * * * * * * * * * * * * * * * //

simulationType RAS;

RAS
{
    RASModel            kOmegaSST; //kOmegaSST_BOR_InDaLoop_R;
    turbulence          on;
    printCoeffs         on;

    kOmegaSST_BOR_InDaLoop_RCoeffs{
          zeta1            #include "zeta1.H";
          zeta2            #include "zeta2.H";
          zeta3            #include "zeta3.H";
          zeta4            #include "zeta4.H";
          zeta5            #include "zeta5.H";
          zeta6            #include "zeta6.H";
    };
}

// ************************************************************************* //
