/*--------------------------------*- C++ -*----------------------------------*\
| =========                 |                                                 |
| \\      /  F ield         | OpenFOAM: The Open Source CFD Toolbox           |
|  \\    /   O peration     | Version:  2.4.0                                 |
|   \\  /    A nd           | Web:      www.OpenFOAM.org                      |
|    \\/     M anipulation  |                                                 |
\*---------------------------------------------------------------------------*/
FoamFile
{
    version     2.0;
    format      ascii;
    class       polyBoundaryMesh;
    location    "constant/polyMesh";
    object      boundary;
}
// * * * * * * * * * * * * * * * * * * * * * * * * * * * * * * * * * * * * * //

5
(
   outlet
    {
        type            patch;
      //  type            cyclic;
      //  inGroups        1(cyclic);
        nFaces          130;
        startFace       30950;
      //  matchTolerance  0.0001;
      //  transform       unknown;
      //  neighbourPatch  inlet;
    }
    inlet
    {
        type            patch;
     //   type            cyclic;
     //   inGroups        1(cyclic);
        nFaces          130;
        startFace       31080;
     //   matchTolerance  0.0001;
     //   transform       unknown;
      //  neighbourPatch  outlet;
    }
    hills
    {
        type            wall;
        inGroups        1(wall);
        nFaces          120;
        startFace       31210;
    }
    top
    {
        type            wall;
        inGroups        1(wall);
        nFaces          120;
        startFace       31330;
    }
    frontAndBackPlanes
    {
        type            empty;
        inGroups        1(empty);
        nFaces          31200;
        startFace       31450;
    }
)

// ************************************************************************* //
