/*--------------------------------*- C++ -*----------------------------------*\
| =========                 |                                                 |
| \\      /  F ield         | OpenFOAM: The Open Source CFD Toolbox           |
|  \\    /   O peration     | Version:  5.x                                   |
|   \\  /    A nd           | Web:      www.OpenFOAM.org                      |
|    \\/     M anipulation  |                                                 |
\*---------------------------------------------------------------------------*/
FoamFile
{
    version     2.0;
    format      ascii;
    class       polyBoundaryMesh;
    location    "constant/polyMesh";
    object      boundary;
}
// * * * * * * * * * * * * * * * * * * * * * * * * * * * * * * * * * * * * * //

6
(
    inlet
    {
        type            cyclic;
        inGroups        1(cyclic);
        nFaces          290;
        startFace       156040;
        matchTolerance  0.0001;
        transform       unknown;
        neighbourPatch  outlet;
    }
    outlet
    {
        type            cyclic;
        inGroups        1(cyclic);
        nFaces          290;
        startFace       156330;
        matchTolerance  0.0001;
        transform       unknown;
        neighbourPatch  inlet;
    }
    top
    {
        type            wall;
        inGroups        1(wall);
        nFaces          270;
        startFace       156620;
    }
    hills
    {
        type            wall;
        inGroups        1(wall);
        nFaces          270;
        startFace       156890;
    }
    front
    {
        type            empty;
        inGroups        1(empty);
        nFaces          78300;
        startFace       157160;
    }
    back
    {
        type            empty;
        inGroups        1(empty);
        nFaces          78300;
        startFace       235460;
    }
)

// ************************************************************************* //
