/*--------------------------------*- C++ -*----------------------------------*\
| =========                 |                                                 |
| \\      /  F ield         | OpenFOAM: The Open Source CFD Toolbox           |
|  \\    /   O peration     | Version:  2.4.0                                 |
|   \\  /    A nd           | Web:      www.OpenFOAM.org                      |
|    \\/     M anipulation  |                                                 |
\*---------------------------------------------------------------------------*/
FoamFile
{
    version     2.0;
    format      ascii;
    class       polyBoundaryMesh;
    location    "constant/polyMesh";
    object      boundary;
}
// * * * * * * * * * * * * * * * * * * * * * * * * * * * * * * * * * * * * * //

9
(
    inlet
    {
        type            cyclic;
        inGroups        1(cyclic);
        nFaces          0;
        startFace       19350;
        matchTolerance  0.0001;
        transform       unknown;
        neighbourPatch  outlet;
    }
    outlet
    {
        type            cyclic;
        inGroups        1(cyclic);
        nFaces          0;
        startFace       19350;
        matchTolerance  0.0001;
        transform       unknown;
        neighbourPatch  inlet;
    }
    top
    {
        type            wall;
        inGroups        1(wall);
        nFaces          0;
        startFace       19350;
    }
    hills
    {
        type            wall;
        inGroups        1(wall);
        nFaces          98;
        startFace       19350;
    }
    front
    {
        type            empty;
        inGroups        1(empty);
        nFaces          9789;
        startFace       19448;
    }
    back
    {
        type            empty;
        inGroups        1(empty);
        nFaces          9789;
        startFace       29237;
    }
    procBoundary2to0
    {
        type            processor;
        inGroups        1(processor);
        nFaces          123;
        startFace       39026;
        matchTolerance  0.0001;
        transform       unknown;
        myProcNo        2;
        neighbProcNo    0;
    }
    procBoundary2to3
    {
        type            processor;
        inGroups        1(processor);
        nFaces          164;
        startFace       39149;
        matchTolerance  0.0001;
        transform       unknown;
        myProcNo        2;
        neighbProcNo    3;
    }
    procBoundary2to4
    {
        type            processor;
        inGroups        1(processor);
        nFaces          71;
        startFace       39313;
        matchTolerance  0.0001;
        transform       unknown;
        myProcNo        2;
        neighbProcNo    4;
    }
)

// ************************************************************************* //
